power-flow-agent/results/ieee14/2026-09-21/gpt-5.6-sol/pfagent__v1/traces/12_case14-multistep-006-s0.transcript.txt
==============================================================================
TRANSCRIPT  pfagent  |  openrouter:openai/gpt-5.6-sol  |  case14  |  case14-multistep-006-s0  run 0
==============================================================================
date: 2026-09-21   seed: 0   difficulty: multistep   tool variant: v1

[system]   (hash 7da5e2a37ec4, from methods/pfagent/method.json prompt_files)
You are a power system power-flow analysis assistant. You help the user complete power system analysis tasks from natural-language requests.

## What you can do
You complete tasks by calling tool functions:
1. Load an IEEE standard test system (14, 30, 57, 118, 300 buses)
2. Run AC power flow
3. Modify the load at a bus and re-solve
4. Disconnect or reconnect a line and re-solve
5. Query the network status
6. Run an N-1 contingency analysis (disconnect branches one at a time and rank the worst cases)
7. Generate remedial-action suggestions (what-if load shedding or voltage adjustment) to reduce violation risk

## Key rules
- Never fabricate any numerical result. Every voltage, power, loss, or loading value must come from a tool return value.
- If a tool reports an error or a non-converged power flow, say so explicitly and do not report numbers for that state.
- If the request is ambiguous, state the interpretation you are using.
- Bus and line identifiers in the request are MATPOWER 1-based ids; pass them to the tools as given, unless the request itself states a different indexing convention for that identifier (e.g. "(0-based)"), in which case convert it to the MATPOWER 1-based id before calling any tool.
- After a network modification, re-solve before reporting any value.
- Always reply in English.

## Reply format
After each analysis, reply in this structure:
1. One-sentence summary
2. Key numbers (total load, total generation, total losses, voltage range) taken from the tool outputs
3. Violations, if any
4. Suggested next step

[user]
Load the 14-bus test case (case14), set the active load at bus 4 to 42.7 MW, disconnect the line between bus 3 and bus 4, reconnect the line between bus 3 and bus 4, and finally rerun the power flow, then list every line whose loading is above 80%.

--- round 1 ---
[assistant]   (850 in / 62 out tokens, 5.8 s)
(no text)
tool_call  load_case(case_name="case14")
[tool load_case]   (gate: not applied)
{"case_name": "case14", "n_buses": 14, "n_generators": 5, "n_lines": 20, "n_loads": 11, "total_load_mw": 251.83093927460206, "total_gen_capacity_mw": 772.4000000000001}

--- round 2 ---
[assistant]   (951 in / 44 out tokens, 5.1 s)
(no text)
tool_call  get_status()
[tool get_status]   (gate: not applied)
{"active_case": "case14", "network_info": {"case_name": "case14", "n_buses": 14, "n_generators": 5, "n_lines": 20, "n_loads": 11, "total_load_mw": 251.83093927460206, "total_gen_capacity_mw": 772.4000000000001}, "has_last_result": false}

--- round 3 ---
[assistant]   (1065 in / 142 out tokens, 8.7 s)
(no text)
tool_call  run_powerflow()
[tool run_powerflow]   (gate: pass)
{"case_name": "case14", "converged": true, "bus_voltages": [{"bus_id": 1, "vm_pu": 1.06, "va_deg": 0.0, "is_violation": true, "violation_type": "overvoltage"}, {"bus_id": 2, "vm_pu": 1.0449999999999997, "va_deg": -4.756714313679207, "is_violation": false, "violation_type": null}, {"bus_id": 3, "vm_pu": 1.0099999999999998, "va_deg": -11.972168889909485, "is_violation": false, "violation_type": null}, {"bus_id": 4, "vm_pu": 1.0179374363463045, "va_deg": -9.950618540939603, "is_violation": false, "violation_type": null}, {"bus_id": 5, "vm_pu": 1.0196671569829858, "va_deg": -8.495688514345932, "is_violation": false, "violation_type": null}, {"bus_id": 6, "vm_pu": 1.07, "va_deg": -13.952392319676727, "is_violation": true, "violation_type": "overvoltage"}, {"bus_id": 7, "vm_pu": 1.0619675550111916, "va_deg": -12.99271018994991, "is_violation": true, "violation_type": "overvoltage"}, {"bus_id": 8, "vm_pu": 1.0900000000000003, "va_deg": -12.992710189949912, "is_violation": true, "violation_type": "overvoltage"}, {"bus_id": 9, "vm_pu": 1.0567483709861654, "va_deg": -14.56839812702424, "is_violation": true, "violation_type": "overvoltage"}, {"bus_id": 10, "vm_pu": 1.0516024547049074, "va_deg": -14.748654004961676, "is_violation": true, "violation_type": "overvoltage"}, {"bus_id": 11, "vm_pu": 1.0570789938686496, "va_deg": -14.48883446183833, "is_violation": true, "violation_type": "overvoltage"}, {"bus_id": 12, "vm_pu": 1.0551330413236402, "va_deg": -14.80216280193483, "is_violation": true, "violation_type": "overvoltage"}, {"bus_id": 13, "vm_pu": 1.0509297808694553, "va_deg": -14.859120556286152, "is_violation": true, "violation_type": "overvoltage"}, {"bus_id": 14, "vm_pu": 1.0361968265956265, "va_deg": -15.696601788043628, "is_violation": false, "violation_type": null}], "line_flows": [{"line_id": 0, "from_bus": 1, "to_bus": 2, "p_from_mw": 150.05649002757758, "q_from_mvar": -18.794930236617173, "loading_percent": 1.4410993345111618, "is_violation": false}, {"line_id": 1, "from_bus": 1, "to_bus": 5, "p_from_mw": 73.22650344171083, "q_from_mvar": 3.9830244170580245, "loading_percent": 0.6997789979867266, "is_violation": false}, {"line_id": 2, "from_bus": 2, "to_bus": 3, "p_from_mw": 68.4909719127944, "q_from_mvar": 4.048506670175514, "loading_percent": 0.6646128904682086, "is_violation": false}, {"line_id": 3, "from_bus": 2, "to_bus": 4, "p_from_mw": 54.76867059791406, "q_from_mvar": -1.390243437812988, "loading_percent": 0.5295666006391733, "is_violation": false}, {"line_id": 4, "from_bus": 2, "to_bus": 5, "p_from_mw": 40.97965889988544, "q_from_mvar": 1.2180793124909057, "loading_percent": 0.397832932756192, "is_violation": false}, {"line_id": 5, "from_bus": 3, "to_bus": 4, "p_from_mw": -19.848233249354724, "q_from_mvar": 2.810481428406402, "loading_percent": 0.20250817043924912, "is_violation": false}, {"line_id": 6, "from_bus": 4, "to_bus": 5, "p_from_mw": -57.8444814893455, "q_from_mvar": 14.951605530917403, "loading_percent": 0.5928564014664868, "is_violation": false}, {"line_id": 7, "from_bus": 6, "to_bus": 11, "p_from_mw": 7.048128742178792, "q_from_mvar": 3.610225443155947, "loading_percent": 0.07475648907683348, "is_violation": false}, {"line_id": 8, "from_bus": 6, "to_bus": 12, "p_from_mw": 7.764173922762117, "q_from_mvar": 2.536596696252205, "loading_percent": 0.07710781017529783, "is_violation": false}, {"line_id": 9, "from_bus": 6, "to_bus": 13, "p_from_mw": 17.22678833783483, "q_from_mvar": 7.024197449679191, "loading_percent": 0.17562357870873985, "is_violation": false}, {"line_id": 10, "from_bus": 9, "to_bus": 10, "p_from_mw": 5.74794720840802, "q_from_mvar": 4.278125658323088, "loading_percent": 0.06848988925027849, "is_violation": false}, {"line_id": 11, "from_bus": 9, "to_bus": 14, "p_from_mw": 9.653517624887172, "q_from_mvar": 3.5725645945923743, "loading_percent": 0.09839003582648728, "is_violation": false}, {"line_id": 12, "from_bus": 10, "to_bus": 11, "p_from_mw": -3.300551482322226, "q_from_mvar": -1.5825532627277594, "loading_percent": 0.03515888254536064, "is_violation": false}, {"line_id": 13, "from_bus": 12, "to_bus": 13, "p_from_mw": 1.352260133137904, "q_from_mvar": 0.7245016074845446, "loading_percent": 0.014686408727489057, "is_violation": false}, {"line_id": 14, "from_bus": 13, "to_bus": 14, "p_from_mw": 5.458325772269157, "q_from_mvar": 1.8015378027358833, "loading_percent": 0.055246354334136605, "is_violation": false}, {"line_id": 100000, "from_bus": 4, "to_bus": 7, "p_from_mw": 28.05068713651726, "q_from_mvar": -9.772879110937467, "loading_percent": 0.2947570604550872, "is_violation": false}, {"line_id": 100001, "from_bus": 4, "to_bus": 9, "p_from_mw": 16.069184042467953, "q_from_mvar": -0.5317066270796837, "loading_percent": 0.1595420463857015, "is_violation": false}, {"line_id": 100002, "from_bus": 5, "to_bus": 6, "p_from_mw": 44.17151732125428, "q_from_mvar": 12.551362629001527, "loading_percent": 0.4548933811909457, "is_violation": false}, {"line_id": 100003, "from_bus": 7, "to_bus": 8, "p_from_mw": 1.4383894067890108e-14, "q_from_mvar": -16.90011187382968, "loading_percent": 0.16074709621797748, "is_violation": false}, {"line_id": 100004, "from_bus": 7, "to_bus": 9, "p_from_mw": 28.050687136128953, "q_from_mvar": 5.424007451648826, "loading_percent": 0.271749062984337, "is_violation": false}], "total_generation_mw": 264.12290841482593, "total_load_mw": 251.83093927460206, "total_loss_mw": 12.291969145568412, "voltage_violations": [{"bus_id": 1, "vm_pu": 1.06, "va_deg": 0.0, "is_violation": true, "violation_type": "overvoltage"}, {"bus_id": 6, "vm_pu": 1.07, "va_deg": -13.952392319676727, "is_violation": true, "violation_type": "overvoltage"}, {"bus_id": 7, "vm_pu": 1.0619675550111916, "va_deg": -12.99271018994991, "is_violation": true, "violation_type": "overvoltage"}, {"bus_id": 8, "vm_pu": 1.0900000000000003, "va_deg": -12.992710189949912, "is_violation": true, "violation_type": "overvoltage"}, {"bus_id": 9, "vm_pu": 1.0567483709861654, "va_deg": -14.56839812702424, "is_violation": true, "violation_type": "overvoltage"}, {"bus_id": 10, "vm_pu": 1.0516024547049074, "va_deg": -14.748654004961676, "is_violation": true, "violation_type": "overvoltage"}, {"bus_id": 11, "vm_pu": 1.0570789938686496, "va_deg": -14.48883446183833, "is_violation": true, "violation_type": "overvoltage"}, {"bus_id": 12, "vm_pu": 1.0551330413236402, "va_deg": -14.80216280193483, "is_violation": true, "violation_type": "overvoltage"}, {"bus_id": 13, "vm_pu": 1.0509297808694553, "va_deg": -14.859120556286152, "is_violation": true, "violation_type": "overvoltage"}], "thermal_violations": [], "summary_text": "", "solver_backend": "pandapower", "llm_prompt": null, "llm_response": null}

--- round 4 ---
[assistant]   (3813 in / 286 out tokens, 12.5 s)
(no text)
tool_call  modify_load(bus_id=4, p_mw=42.7, q_mvar=-3.9)
[tool modify_load]   (gate: pass)
{"case_name": "case14", "converged": true, "bus_voltages": [{"bus_id": 1, "vm_pu": 1.06, "va_deg": 0.0, "is_violation": true, "violation_type": "overvoltage"}, {"bus_id": 2, "vm_pu": 1.0449999999999997, "va_deg": -4.656433439016519, "is_violation": false, "violation_type": null}, {"bus_id": 3, "vm_pu": 1.0099999999999998, "va_deg": -11.796793345908736, "is_violation": false, "violation_type": null}, {"bus_id": 4, "vm_pu": 1.0186454344917795, "va_deg": -9.721502472777349, "is_violation": false, "violation_type": null}, {"bus_id": 5, "vm_pu": 1.0201815154729235, "va_deg": -8.316717048375743, "is_violation": false, "violation_type": null}, {"bus_id": 6, "vm_pu": 1.07, "va_deg": -13.751949689601934, "is_violation": true, "violation_type": "overvoltage"}, {"bus_id": 7, "vm_pu": 1.0623075850200805, "va_deg": -12.770590554681434, "is_violation": true, "violation_type": "overvoltage"}, {"bus_id": 8, "vm_pu": 1.09, "va_deg": -12.77059055468143, "is_violation": true, "violation_type": "overvoltage"}, {"bus_id": 9, "vm_pu": 1.0571051591256917, "va_deg": -14.350465054489144, "is_violation": true, "violation_type": "overvoltage"}, {"bus_id": 10, "vm_pu": 1.0519026589326979, "va_deg": -14.533831350100131, "is_violation": true, "violation_type": "overvoltage"}, {"bus_id": 11, "vm_pu": 1.0572373025840602, "va_deg": -14.281254934407345, "is_violation": true, "violation_type": "overvoltage"}, {"bus_id": 12, "vm_pu": 1.0551566801052554, "va_deg": -14.600240835833498, "is_violation": true, "violation_type": "overvoltage"}, {"bus_id": 13, "vm_pu": 1.0509865679465928, "va_deg": -14.65624454504126, "is_violation": true, "violation_type": "overvoltage"}, {"bus_id": 14, "vm_pu": 1.0364279592698402, "va_deg": -15.484809408459784, "is_violation": false, "violation_type": null}], "line_flows": [{"line_id": 0, "from_bus": 1, "to_bus": 2, "p_from_mw": 147.02784070143446, "q_from_mvar": -18.071803973080094, "loading_percent": 1.4116096585101334, "is_violation": false}, {"line_id": 1, "from_bus": 1, "to_bus": 5, "p_from_mw": 71.73947697273601, "q_from_mvar": 3.880078897419379, "loading_percent": 0.6856789148094087, "is_violation": false}, {"line_id": 2, "from_bus": 2, "to_bus": 3, "p_from_mw": 67.81505060196076, "q_from_mvar": 4.121632941706322, "loading_percent": 0.6582531663574359, "is_violation": false}, {"line_id": 3, "from_bus": 2, "to_bus": 4, "p_from_mw": 53.42300095279489, "q_from_mvar": -1.4860100557202085, "loading_percent": 0.5165885102403515, "is_violation": false}, {"line_id": 4, "from_bus": 2, "to_bus": 5, "p_from_mw": 40.131651330293536, "q_from_mvar": 1.1330220595700862, "loading_percent": 0.3896216449818838, "is_violation": false}, {"line_id": 5, "from_bus": 3, "to_bus": 4, "p_from_mw": -20.484917549688937, "q_from_mvar": 2.6622628716880734, "loading_percent": 0.20845342824318916, "is_violation": false}, {"line_id": 6, "from_bus": 4, "to_bus": 5, "p_from_mw": -55.83193648708682, "q_from_mvar": 14.726142631621942, "loading_percent": 0.5725702185911593, "is_violation": false}, {"line_id": 7, "from_bus": 6, "to_bus": 11, "p_from_mw": 6.957719709328544, "q_from_mvar": 3.5675794370655733, "loading_percent": 0.07381333332608873, "is_violation": false}, {"line_id": 8, "from_bus": 6, "to_bus": 12, "p_from_mw": 7.751110811332396, "q_from_mvar": 2.532817801506163, "loading_percent": 0.07697951078662953, "is_violation": false}, {"line_id": 9, "from_bus": 6, "to_bus": 13, "p_from_mw": 17.17917044781149, "q_from_mvar": 7.001160593871345, "loading_percent": 0.17512522150911614, "is_violation": false}, {"line_id": 10, "from_bus": 9, "to_bus": 10, "p_from_mw": 5.836909326039771, "q_from_mvar": 4.317826577444164, "loading_percent": 0.06937548678368564, "is_violation": false}, {"line_id": 11, "from_bus": 9, "to_bus": 14, "p_from_mw": 9.713047218144565, "q_from_mvar": 3.5973197002483, "loading_percent": 0.09897239556693653, "is_violation": false}, {"line_id": 12, "from_bus": 10, "to_bus": 11, "p_from_mw": -3.21197001455054, "q_from_mvar": -1.5438635008750496, "loading_percent": 0.03422123346043049, "is_violation": false}, {"line_id": 13, "from_bus": 12, "to_bus": 13, "p_from_mw": 1.3394351708926004, "q_from_mvar": 0.7212183676324276, "loading_percent": 0.014563048173365047, "is_violation": false}, {"line_id": 14, "from_bus": 13, "to_bus": 14, "p_from_mw": 5.399094326558177, "q_from_mvar": 1.7775201749585892, "loading_percent": 0.05463044749755982, "is_violation": false}, {"line_id": 100000, "from_bus": 4, "to_bus": 7, "p_from_mw": 28.143702506634156, "q_from_mvar": -9.584799455029058, "loading_percent": 0.29481682477485427, "is_violation": false}, {"line_id": 100001, "from_bus": 4, "to_bus": 9, "p_from_mw": 16.124660383237075, "q_from_mvar": -0.45805096526055633, "loading_percent": 0.1599585633486866, "is_violation": false}, {"line_id": 100002, "from_bus": 5, "to_bus": 6, "p_from_mw": 44.02042728705001, "q_from_mvar": 12.780869888086285, "loading_percent": 0.4538535582485835, "is_violation": false}, {"line_id": 100003, "from_bus": 7, "to_bus": 8, "p_from_mw": -7.153319837114263e-14, "q_from_mvar": -16.700461243651574, "loading_percent": 0.15879725429096275, "is_violation": false}, {"line_id": 100004, "from_bus": 7, "to_bus": 9, "p_from_mw": 28.14370250626352, "q_from_mvar": 5.411745722609327, "loading_percent": 0.2725084484202979, "is_violation": false}], "total_generation_mw": 259.60723261970804, "total_load_mw": 247.74885550811788, "total_loss_mw": 11.858377116324387, "voltage_violations": [{"bus_id": 1, "vm_pu": 1.06, "va_deg": 0.0, "is_violation": true, "violation_type": "overvoltage"}, {"bus_id": 6, "vm_pu": 1.07, "va_deg": -13.751949689601934, "is_violation": true, "violation_type": "overvoltage"}, {"bus_id": 7, "vm_pu": 1.0623075850200805, "va_deg": -12.770590554681434, "is_violation": true, "violation_type": "overvoltage"}, {"bus_id": 8, "vm_pu": 1.09, "va_deg": -12.77059055468143, "is_violation": true, "violation_type": "overvoltage"}, {"bus_id": 9, "vm_pu": 1.0571051591256917, "va_deg": -14.350465054489144, "is_violation": true, "violation_type": "overvoltage"}, {"bus_id": 10, "vm_pu": 1.0519026589326979, "va_deg": -14.533831350100131, "is_violation": true, "violation_type": "overvoltage"}, {"bus_id": 11, "vm_pu": 1.0572373025840602, "va_deg": -14.281254934407345, "is_violation": true, "violation_type": "overvoltage"}, {"bus_id": 12, "vm_pu": 1.0551566801052554, "va_deg": -14.600240835833498, "is_violation": true, "violation_type": "overvoltage"}, {"bus_id": 13, "vm_pu": 1.0509865679465928, "va_deg": -14.65624454504126, "is_violation": true, "violation_type": "overvoltage"}], "thermal_violations": [], "summary_text": "", "solver_backend": "pandapower", "llm_prompt": null, "llm_response": null}

--- round 5 ---
[assistant]   (6574 in / 84 out tokens, 7.9 s)
(no text)
tool_call  disconnect_line(from_bus=3, to_bus=4)
[tool disconnect_line]   (gate: pass)
{"case_name": "case14", "converged": true, "bus_voltages": [{"bus_id": 1, "vm_pu": 1.06, "va_deg": 0.0, "is_violation": true, "violation_type": "overvoltage"}, {"bus_id": 2, "vm_pu": 1.045, "va_deg": -4.8175291024652545, "is_violation": false, "violation_type": null}, {"bus_id": 3, "vm_pu": 1.0099999999999998, "va_deg": -14.393499005800475, "is_violation": false, "violation_type": null}, {"bus_id": 4, "vm_pu": 1.0214401945293432, "va_deg": -8.897576997539872, "is_violation": false, "violation_type": null}, {"bus_id": 5, "vm_pu": 1.022275951078814, "va_deg": -7.7576152177673, "is_violation": false, "violation_type": null}, {"bus_id": 6, "vm_pu": 1.07, "va_deg": -13.086885741087494, "is_violation": true, "violation_type": "overvoltage"}, {"bus_id": 7, "vm_pu": 1.063674279656681, "va_deg": -11.985673633631416, "is_violation": true, "violation_type": "overvoltage"}, {"bus_id": 8, "vm_pu": 1.09, "va_deg": -11.985673633631412, "is_violation": true, "violation_type": "overvoltage"}, {"bus_id": 9, "vm_pu": 1.0585752472005296, "va_deg": -13.58790839215959, "is_violation": true, "violation_type": "overvoltage"}, {"bus_id": 10, "vm_pu": 1.0531443496816555, "va_deg": -13.788511474743164, "is_violation": true, "violation_type": "overvoltage"}, {"bus_id": 11, "vm_pu": 1.057897154716272, "va_deg": -13.576061783418902, "is_violation": true, "violation_type": "overvoltage"}, {"bus_id": 12, "vm_pu": 1.055249996680095, "va_deg": -13.927311175344705, "is_violation": true, "violation_type": "overvoltage"}, {"bus_id": 13, "vm_pu": 1.051225181608795, "va_deg": -13.977533151243053, "is_violation": true, "violation_type": "overvoltage"}, {"bus_id": 14, "vm_pu": 1.0373831990186315, "va_deg": -14.75698138624252, "is_violation": false, "violation_type": null}], "line_flows": [{"line_id": 0, "from_bus": 1, "to_bus": 2, "p_from_mw": 151.89381270923678, "q_from_mvar": -19.23088372312578, "loading_percent": 1.4589895102162709, "is_violation": false}, {"line_id": 1, "from_bus": 1, "to_bus": 5, "p_from_mw": 67.06433989467064, "q_from_mvar": 3.36483929033925, "loading_percent": 0.6411148466984348, "is_violation": false}, {"line_id": 2, "from_bus": 2, "to_bus": 3, "p_from_mw": 89.78033780627624, "q_from_mvar": 2.20207618523722, "loading_percent": 0.8680811881708044, "is_violation": false}, {"line_id": 3, "from_bus": 2, "to_bus": 4, "p_from_mw": 43.459852911535705, "q_from_mvar": -0.6820515750921413, "loading_percent": 0.4201363354406811, "is_violation": false}, {"line_id": 4, "from_bus": 2, "to_bus": 5, "p_from_mw": 32.73833095822488, "q_from_mvar": 1.8537856930962646, "loading_percent": 0.32012452161296906, "is_violation": false}, {"line_id": 5, "from_bus": 3, "to_bus": 4, "p_from_mw": 0.0, "q_from_mvar": 0.0, "loading_percent": 0.0, "is_violation": false}, {"line_id": 6, "from_bus": 4, "to_bus": 5, "p_from_mw": -45.269901336704976, "q_from_mvar": 12.815302651798804, "loading_percent": 0.46526570045689714, "is_violation": false}, {"line_id": 7, "from_bus": 6, "to_bus": 11, "p_from_mw": 6.496418673428347, "q_from_mvar": 3.4293621375364403, "loading_percent": 0.06934785222329573, "is_violation": false}, {"line_id": 8, "from_bus": 6, "to_bus": 12, "p_from_mw": 7.686772123443013, "q_from_mvar": 2.5238098045765907, "loading_percent": 0.07637584523544108, "is_violation": false}, {"line_id": 9, "from_bus": 6, "to_bus": 13, "p_from_mw": 16.937732014261993, "q_from_mvar": 6.9245736539918, "loading_percent": 0.17274178997949483, "is_violation": false}, {"line_id": 10, "from_bus": 9, "to_bus": 10, "p_from_mw": 6.291807667487646, "q_from_mvar": 4.443103702493834, "loading_percent": 0.0734975693942697, "is_violation": false}, {"line_id": 11, "from_bus": 9, "to_bus": 14, "p_from_mw": 10.013739822501176, "q_from_mvar": 3.6739038349358233, "loading_percent": 0.10177985449320377, "is_violation": false}, {"line_id": 12, "from_bus": 10, "to_bus": 11, "p_from_mw": -2.7589077931874293, "q_from_mvar": -1.4234638404209314, "loading_percent": 0.02977599912523136, "is_violation": false}, {"line_id": 13, "from_bus": 12, "to_bus": 13, "p_from_mw": 1.276211683487276, "q_from_mvar": 0.7145314140357998, "loading_percent": 0.014000462696698435, "is_violation": false}, {"line_id": 14, "from_bus": 13, "to_bus": 14, "p_from_mw": 5.100155813083933, "q_from_mvar": 1.7051470568920388, "loading_percent": 0.05167274759693083, "is_violation": false}, {"line_id": 100000, "from_bus": 4, "to_bus": 7, "p_from_mw": 28.61838617970295, "q_from_mvar": -8.84614535653677, "loading_percent": 0.2962187491292016, "is_violation": false}, {"line_id": 100001, "from_bus": 4, "to_bus": 9, "p_from_mw": 16.405567655909657, "q_from_mvar": -0.17293352181668342, "loading_percent": 0.1622434792492588, "is_violation": false}, {"line_id": 100002, "from_bus": 5, "to_bus": 6, "p_from_mw": 43.25334912991246, "q_from_mvar": 13.704390295401033, "loading_percent": 0.4483211633767638, "is_violation": false}, {"line_id": 100003, "from_bus": 7, "to_bus": 8, "p_from_mw": -1.0546913689513289e-14, "q_from_mvar": -15.89667421096978, "loading_percent": 0.15096018569641453, "is_violation": false}, {"line_id": 100004, "from_bus": 7, "to_bus": 9, "p_from_mw": 28.618386179370646, "q_from_mvar": 5.330369203986138, "loading_percent": 0.27644373278797474, "is_violation": false}], "total_generation_mw": 259.79806754944497, "total_load_mw": 247.74885550811788, "total_loss_mw": 12.049212043678125, "voltage_violations": [{"bus_id": 1, "vm_pu": 1.06, "va_deg": 0.0, "is_violation": true, "violation_type": "overvoltage"}, {"bus_id": 6, "vm_pu": 1.07, "va_deg": -13.086885741087494, "is_violation": true, "violation_type": "overvoltage"}, {"bus_id": 7, "vm_pu": 1.063674279656681, "va_deg": -11.985673633631416, "is_violation": true, "violation_type": "overvoltage"}, {"bus_id": 8, "vm_pu": 1.09, "va_deg": -11.985673633631412, "is_violation": true, "violation_type": "overvoltage"}, {"bus_id": 9, "vm_pu": 1.0585752472005296, "va_deg": -13.58790839215959, "is_violation": true, "violation_type": "overvoltage"}, {"bus_id": 10, "vm_pu": 1.0531443496816555, "va_deg": -13.788511474743164, "is_violation": true, "violation_type": "overvoltage"}, {"bus_id": 11, "vm_pu": 1.057897154716272, "va_deg": -13.576061783418902, "is_violation": true, "violation_type": "overvoltage"}, {"bus_id": 12, "vm_pu": 1.055249996680095, "va_deg": -13.927311175344705, "is_violation": true, "violation_type": "overvoltage"}, {"bus_id": 13, "vm_pu": 1.051225181608795, "va_deg": -13.977533151243053, "is_violation": true, "violation_type": "overvoltage"}], "thermal_violations": [], "summary_text": "", "solver_backend": "pandapower", "llm_prompt": null, "llm_response": null}

--- round 6 ---
[assistant]   (9299 in / 25 out tokens, 5.7 s)
(no text)
tool_call  reconnect_line(from_bus=3, to_bus=4)
[tool reconnect_line]   (gate: pass)
{"case_name": "case14", "converged": true, "bus_voltages": [{"bus_id": 1, "vm_pu": 1.06, "va_deg": 0.0, "is_violation": true, "violation_type": "overvoltage"}, {"bus_id": 2, "vm_pu": 1.0449999999999997, "va_deg": -4.656433439016519, "is_violation": false, "violation_type": null}, {"bus_id": 3, "vm_pu": 1.0099999999999998, "va_deg": -11.796793345908736, "is_violation": false, "violation_type": null}, {"bus_id": 4, "vm_pu": 1.0186454344917795, "va_deg": -9.721502472777349, "is_violation": false, "violation_type": null}, {"bus_id": 5, "vm_pu": 1.0201815154729235, "va_deg": -8.316717048375743, "is_violation": false, "violation_type": null}, {"bus_id": 6, "vm_pu": 1.07, "va_deg": -13.751949689601934, "is_violation": true, "violation_type": "overvoltage"}, {"bus_id": 7, "vm_pu": 1.0623075850200805, "va_deg": -12.770590554681434, "is_violation": true, "violation_type": "overvoltage"}, {"bus_id": 8, "vm_pu": 1.09, "va_deg": -12.77059055468143, "is_violation": true, "violation_type": "overvoltage"}, {"bus_id": 9, "vm_pu": 1.0571051591256917, "va_deg": -14.350465054489144, "is_violation": true, "violation_type": "overvoltage"}, {"bus_id": 10, "vm_pu": 1.0519026589326979, "va_deg": -14.533831350100131, "is_violation": true, "violation_type": "overvoltage"}, {"bus_id": 11, "vm_pu": 1.0572373025840602, "va_deg": -14.281254934407345, "is_violation": true, "violation_type": "overvoltage"}, {"bus_id": 12, "vm_pu": 1.0551566801052554, "va_deg": -14.600240835833498, "is_violation": true, "violation_type": "overvoltage"}, {"bus_id": 13, "vm_pu": 1.0509865679465928, "va_deg": -14.65624454504126, "is_violation": true, "violation_type": "overvoltage"}, {"bus_id": 14, "vm_pu": 1.0364279592698402, "va_deg": -15.484809408459784, "is_violation": false, "violation_type": null}], "line_flows": [{"line_id": 0, "from_bus": 1, "to_bus": 2, "p_from_mw": 147.02784070143446, "q_from_mvar": -18.071803973080094, "loading_percent": 1.4116096585101334, "is_violation": false}, {"line_id": 1, "from_bus": 1, "to_bus": 5, "p_from_mw": 71.73947697273601, "q_from_mvar": 3.880078897419379, "loading_percent": 0.6856789148094087, "is_violation": false}, {"line_id": 2, "from_bus": 2, "to_bus": 3, "p_from_mw": 67.81505060196076, "q_from_mvar": 4.121632941706322, "loading_percent": 0.6582531663574359, "is_violation": false}, {"line_id": 3, "from_bus": 2, "to_bus": 4, "p_from_mw": 53.42300095279489, "q_from_mvar": -1.4860100557202085, "loading_percent": 0.5165885102403515, "is_violation": false}, {"line_id": 4, "from_bus": 2, "to_bus": 5, "p_from_mw": 40.131651330293536, "q_from_mvar": 1.1330220595700862, "loading_percent": 0.3896216449818838, "is_violation": false}, {"line_id": 5, "from_bus": 3, "to_bus": 4, "p_from_mw": -20.484917549688937, "q_from_mvar": 2.6622628716880734, "loading_percent": 0.20845342824318916, "is_violation": false}, {"line_id": 6, "from_bus": 4, "to_bus": 5, "p_from_mw": -55.83193648708682, "q_from_mvar": 14.726142631621942, "loading_percent": 0.5725702185911593, "is_violation": false}, {"line_id": 7, "from_bus": 6, "to_bus": 11, "p_from_mw": 6.957719709328544, "q_from_mvar": 3.5675794370655733, "loading_percent": 0.07381333332608873, "is_violation": false}, {"line_id": 8, "from_bus": 6, "to_bus": 12, "p_from_mw": 7.751110811332396, "q_from_mvar": 2.532817801506163, "loading_percent": 0.07697951078662953, "is_violation": false}, {"line_id": 9, "from_bus": 6, "to_bus": 13, "p_from_mw": 17.17917044781149, "q_from_mvar": 7.001160593871345, "loading_percent": 0.17512522150911614, "is_violation": false}, {"line_id": 10, "from_bus": 9, "to_bus": 10, "p_from_mw": 5.836909326039771, "q_from_mvar": 4.317826577444164, "loading_percent": 0.06937548678368564, "is_violation": false}, {"line_id": 11, "from_bus": 9, "to_bus": 14, "p_from_mw": 9.713047218144565, "q_from_mvar": 3.5973197002483, "loading_percent": 0.09897239556693653, "is_violation": false}, {"line_id": 12, "from_bus": 10, "to_bus": 11, "p_from_mw": -3.21197001455054, "q_from_mvar": -1.5438635008750496, "loading_percent": 0.03422123346043049, "is_violation": false}, {"line_id": 13, "from_bus": 12, "to_bus": 13, "p_from_mw": 1.3394351708926004, "q_from_mvar": 0.7212183676324276, "loading_percent": 0.014563048173365047, "is_violation": false}, {"line_id": 14, "from_bus": 13, "to_bus": 14, "p_from_mw": 5.399094326558177, "q_from_mvar": 1.7775201749585892, "loading_percent": 0.05463044749755982, "is_violation": false}, {"line_id": 100000, "from_bus": 4, "to_bus": 7, "p_from_mw": 28.143702506634156, "q_from_mvar": -9.584799455029058, "loading_percent": 0.29481682477485427, "is_violation": false}, {"line_id": 100001, "from_bus": 4, "to_bus": 9, "p_from_mw": 16.124660383237075, "q_from_mvar": -0.45805096526055633, "loading_percent": 0.1599585633486866, "is_violation": false}, {"line_id": 100002, "from_bus": 5, "to_bus": 6, "p_from_mw": 44.02042728705001, "q_from_mvar": 12.780869888086285, "loading_percent": 0.4538535582485835, "is_violation": false}, {"line_id": 100003, "from_bus": 7, "to_bus": 8, "p_from_mw": -7.153319837114263e-14, "q_from_mvar": -16.700461243651574, "loading_percent": 0.15879725429096275, "is_violation": false}, {"line_id": 100004, "from_bus": 7, "to_bus": 9, "p_from_mw": 28.14370250626352, "q_from_mvar": 5.411745722609327, "loading_percent": 0.2725084484202979, "is_violation": false}], "total_generation_mw": 259.60723261970804, "total_load_mw": 247.74885550811788, "total_loss_mw": 11.858377116324387, "voltage_violations": [{"bus_id": 1, "vm_pu": 1.06, "va_deg": 0.0, "is_violation": true, "violation_type": "overvoltage"}, {"bus_id": 6, "vm_pu": 1.07, "va_deg": -13.751949689601934, "is_violation": true, "violation_type": "overvoltage"}, {"bus_id": 7, "vm_pu": 1.0623075850200805, "va_deg": -12.770590554681434, "is_violation": true, "violation_type": "overvoltage"}, {"bus_id": 8, "vm_pu": 1.09, "va_deg": -12.77059055468143, "is_violation": true, "violation_type": "overvoltage"}, {"bus_id": 9, "vm_pu": 1.0571051591256917, "va_deg": -14.350465054489144, "is_violation": true, "violation_type": "overvoltage"}, {"bus_id": 10, "vm_pu": 1.0519026589326979, "va_deg": -14.533831350100131, "is_violation": true, "violation_type": "overvoltage"}, {"bus_id": 11, "vm_pu": 1.0572373025840602, "va_deg": -14.281254934407345, "is_violation": true, "violation_type": "overvoltage"}, {"bus_id": 12, "vm_pu": 1.0551566801052554, "va_deg": -14.600240835833498, "is_violation": true, "violation_type": "overvoltage"}, {"bus_id": 13, "vm_pu": 1.0509865679465928, "va_deg": -14.65624454504126, "is_violation": true, "violation_type": "overvoltage"}], "thermal_violations": [], "summary_text": "", "solver_backend": "pandapower", "llm_prompt": null, "llm_response": null}

--- round 7 ---
[assistant]   (12050 in / 15 out tokens, 6.0 s)
(no text)
tool_call  run_powerflow()
[tool run_powerflow]   (gate: pass)
{"case_name": "case14", "converged": true, "bus_voltages": [{"bus_id": 1, "vm_pu": 1.06, "va_deg": 0.0, "is_violation": true, "violation_type": "overvoltage"}, {"bus_id": 2, "vm_pu": 1.0449999999999997, "va_deg": -4.656433439016519, "is_violation": false, "violation_type": null}, {"bus_id": 3, "vm_pu": 1.0099999999999998, "va_deg": -11.796793345908736, "is_violation": false, "violation_type": null}, {"bus_id": 4, "vm_pu": 1.0186454344917795, "va_deg": -9.721502472777349, "is_violation": false, "violation_type": null}, {"bus_id": 5, "vm_pu": 1.0201815154729235, "va_deg": -8.316717048375743, "is_violation": false, "violation_type": null}, {"bus_id": 6, "vm_pu": 1.07, "va_deg": -13.751949689601934, "is_violation": true, "violation_type": "overvoltage"}, {"bus_id": 7, "vm_pu": 1.0623075850200805, "va_deg": -12.770590554681434, "is_violation": true, "violation_type": "overvoltage"}, {"bus_id": 8, "vm_pu": 1.09, "va_deg": -12.77059055468143, "is_violation": true, "violation_type": "overvoltage"}, {"bus_id": 9, "vm_pu": 1.0571051591256917, "va_deg": -14.350465054489144, "is_violation": true, "violation_type": "overvoltage"}, {"bus_id": 10, "vm_pu": 1.0519026589326979, "va_deg": -14.533831350100131, "is_violation": true, "violation_type": "overvoltage"}, {"bus_id": 11, "vm_pu": 1.0572373025840602, "va_deg": -14.281254934407345, "is_violation": true, "violation_type": "overvoltage"}, {"bus_id": 12, "vm_pu": 1.0551566801052554, "va_deg": -14.600240835833498, "is_violation": true, "violation_type": "overvoltage"}, {"bus_id": 13, "vm_pu": 1.0509865679465928, "va_deg": -14.65624454504126, "is_violation": true, "violation_type": "overvoltage"}, {"bus_id": 14, "vm_pu": 1.0364279592698402, "va_deg": -15.484809408459784, "is_violation": false, "violation_type": null}], "line_flows": [{"line_id": 0, "from_bus": 1, "to_bus": 2, "p_from_mw": 147.02784070143446, "q_from_mvar": -18.071803973080094, "loading_percent": 1.4116096585101334, "is_violation": false}, {"line_id": 1, "from_bus": 1, "to_bus": 5, "p_from_mw": 71.73947697273601, "q_from_mvar": 3.880078897419379, "loading_percent": 0.6856789148094087, "is_violation": false}, {"line_id": 2, "from_bus": 2, "to_bus": 3, "p_from_mw": 67.81505060196076, "q_from_mvar": 4.121632941706322, "loading_percent": 0.6582531663574359, "is_violation": false}, {"line_id": 3, "from_bus": 2, "to_bus": 4, "p_from_mw": 53.42300095279489, "q_from_mvar": -1.4860100557202085, "loading_percent": 0.5165885102403515, "is_violation": false}, {"line_id": 4, "from_bus": 2, "to_bus": 5, "p_from_mw": 40.131651330293536, "q_from_mvar": 1.1330220595700862, "loading_percent": 0.3896216449818838, "is_violation": false}, {"line_id": 5, "from_bus": 3, "to_bus": 4, "p_from_mw": -20.484917549688937, "q_from_mvar": 2.6622628716880734, "loading_percent": 0.20845342824318916, "is_violation": false}, {"line_id": 6, "from_bus": 4, "to_bus": 5, "p_from_mw": -55.83193648708682, "q_from_mvar": 14.726142631621942, "loading_percent": 0.5725702185911593, "is_violation": false}, {"line_id": 7, "from_bus": 6, "to_bus": 11, "p_from_mw": 6.957719709328544, "q_from_mvar": 3.5675794370655733, "loading_percent": 0.07381333332608873, "is_violation": false}, {"line_id": 8, "from_bus": 6, "to_bus": 12, "p_from_mw": 7.751110811332396, "q_from_mvar": 2.532817801506163, "loading_percent": 0.07697951078662953, "is_violation": false}, {"line_id": 9, "from_bus": 6, "to_bus": 13, "p_from_mw": 17.17917044781149, "q_from_mvar": 7.001160593871345, "loading_percent": 0.17512522150911614, "is_violation": false}, {"line_id": 10, "from_bus": 9, "to_bus": 10, "p_from_mw": 5.836909326039771, "q_from_mvar": 4.317826577444164, "loading_percent": 0.06937548678368564, "is_violation": false}, {"line_id": 11, "from_bus": 9, "to_bus": 14, "p_from_mw": 9.713047218144565, "q_from_mvar": 3.5973197002483, "loading_percent": 0.09897239556693653, "is_violation": false}, {"line_id": 12, "from_bus": 10, "to_bus": 11, "p_from_mw": -3.21197001455054, "q_from_mvar": -1.5438635008750496, "loading_percent": 0.03422123346043049, "is_violation": false}, {"line_id": 13, "from_bus": 12, "to_bus": 13, "p_from_mw": 1.3394351708926004, "q_from_mvar": 0.7212183676324276, "loading_percent": 0.014563048173365047, "is_violation": false}, {"line_id": 14, "from_bus": 13, "to_bus": 14, "p_from_mw": 5.399094326558177, "q_from_mvar": 1.7775201749585892, "loading_percent": 0.05463044749755982, "is_violation": false}, {"line_id": 100000, "from_bus": 4, "to_bus": 7, "p_from_mw": 28.143702506634156, "q_from_mvar": -9.584799455029058, "loading_percent": 0.29481682477485427, "is_violation": false}, {"line_id": 100001, "from_bus": 4, "to_bus": 9, "p_from_mw": 16.124660383237075, "q_from_mvar": -0.45805096526055633, "loading_percent": 0.1599585633486866, "is_violation": false}, {"line_id": 100002, "from_bus": 5, "to_bus": 6, "p_from_mw": 44.02042728705001, "q_from_mvar": 12.780869888086285, "loading_percent": 0.4538535582485835, "is_violation": false}, {"line_id": 100003, "from_bus": 7, "to_bus": 8, "p_from_mw": -7.153319837114263e-14, "q_from_mvar": -16.700461243651574, "loading_percent": 0.15879725429096275, "is_violation": false}, {"line_id": 100004, "from_bus": 7, "to_bus": 9, "p_from_mw": 28.14370250626352, "q_from_mvar": 5.411745722609327, "loading_percent": 0.2725084484202979, "is_violation": false}], "total_generation_mw": 259.60723261970804, "total_load_mw": 247.74885550811788, "total_loss_mw": 11.858377116324387, "voltage_violations": [{"bus_id": 1, "vm_pu": 1.06, "va_deg": 0.0, "is_violation": true, "violation_type": "overvoltage"}, {"bus_id": 6, "vm_pu": 1.07, "va_deg": -13.751949689601934, "is_violation": true, "violation_type": "overvoltage"}, {"bus_id": 7, "vm_pu": 1.0623075850200805, "va_deg": -12.770590554681434, "is_violation": true, "violation_type": "overvoltage"}, {"bus_id": 8, "vm_pu": 1.09, "va_deg": -12.77059055468143, "is_violation": true, "violation_type": "overvoltage"}, {"bus_id": 9, "vm_pu": 1.0571051591256917, "va_deg": -14.350465054489144, "is_violation": true, "violation_type": "overvoltage"}, {"bus_id": 10, "vm_pu": 1.0519026589326979, "va_deg": -14.533831350100131, "is_violation": true, "violation_type": "overvoltage"}, {"bus_id": 11, "vm_pu": 1.0572373025840602, "va_deg": -14.281254934407345, "is_violation": true, "violation_type": "overvoltage"}, {"bus_id": 12, "vm_pu": 1.0551566801052554, "va_deg": -14.600240835833498, "is_violation": true, "violation_type": "overvoltage"}, {"bus_id": 13, "vm_pu": 1.0509865679465928, "va_deg": -14.65624454504126, "is_violation": true, "violation_type": "overvoltage"}], "thermal_violations": [], "summary_text": "", "solver_backend": "pandapower", "llm_prompt": null, "llm_response": null}

--- round 8 ---
[assistant]   (14791 in / 409 out tokens, 14.0 s)
1. **Summary:** The case14 sequence completed successfully—bus 4 active load was set to 42.7 MW, line 3–4 was disconnected and reconnected, and the final AC power flow converged; no line loading exceeded 80%.

2. **Key numbers**
   - Total load: **247.749 MW**
   - Total generation: **259.607 MW**
   - Total active-power losses: **11.858 MW**
   - Voltage range: **1.010–1.090 p.u.**
   - Lines above 80% loading: **None**
   - Highest line loading: **1–2 at 1.412%**

3. **Violations**
   - No thermal violations.
   - Overvoltage flags at buses **1, 6, 7, 8, 9, 10, 11, 12, and 13**.

4. **Suggested next step:** Review voltage-control settings, particularly near bus 8, which has the maximum voltage of **1.090 p.u.**

[final answer]
1. **Summary:** The case14 sequence completed successfully—bus 4 active load was set to 42.7 MW, line 3–4 was disconnected and reconnected, and the final AC power flow converged; no line loading exceeded 80%.

2. **Key numbers**
   - Total load: **247.749 MW**
   - Total generation: **259.607 MW**
   - Total active-power losses: **11.858 MW**
   - Voltage range: **1.010–1.090 p.u.**
   - Lines above 80% loading: **None**
   - Highest line loading: **1–2 at 1.412%**

3. **Violations**
   - No thermal violations.
   - Overvoltage flags at buses **1, 6, 7, 8, 9, 10, 11, 12, and 13**.

4. **Suggested next step:** Review voltage-control settings, particularly near bus 8, which has the maximum voltage of **1.090 p.u.**

[verification gate]   outcome: pass_first after 1 attempt(s)
attempt 1: pass
  V1  converged              pass  residual 0
  V2  balance                pass  residual 4.73e-09
  V3  no_isolated_buses      pass  residual 0
  V4  faithfulness           pass  residual 0
  V5  currency               pass  residual 0
